[Format]      =  4.0
[Frequency]   =  0
[Precision]   =  1e-008
[MinAngle]    =  30
[Depth]       =  1
[LengthUnits] =  inches
[ProblemType] =  planar
[Coordinates] =  cartesian
[ACSolver]    =  0
[PrevSoln]    =  ""
[Comment]     =  "Add comments here."
[PointProps]   = 2
  <BeginPoint>
    <PointName> = "5A"
    <I_re> = 5
    <I_im> = 0
    <A_re> = 0
    <A_im> = 0
  <EndPoint>
  <BeginPoint>
    <PointName> = "-5A"
    <I_re> = -5
    <I_im> = 0
    <A_re> = 0
    <A_im> = 0
  <EndPoint>
[BdryProps]   = 1
  <BeginBdry>
    <BdryName> = "New Boundary"
    <BdryType> = 0
    <A_0> = 0
    <A_1> = 0
    <A_2> = 0
    <Phi> = 0
    <c0> = 0
    <c0i> = 0
    <c1> = 0
    <c1i> = 0
    <Mu_ssd> = 0
    <Sigma_ssd> = 0
  <EndBdry>
[BlockProps]  = 3
  <BeginBlock>
    <BlockName> = "Air"
    <Mu_x> = 1
    <Mu_y> = 1
    <H_c> = 0
    <H_cAngle> = 0
    <J_re> = 0
    <J_im> = 0
    <Sigma> = 0
    <d_lam> = 0
    <Phi_h> = 0
    <Phi_hx> = 0
    <Phi_hy> = 0
    <LamType> = 0
    <LamFill> = 1
    <NStrands> = 0
    <WireD> = 0
    <BHPoints> = 0
  <EndBlock>
  <BeginBlock>
    <BlockName> = "Pure Iron"
    <Mu_x> = 14872
    <Mu_y> = 14872
    <H_c> = 0
    <H_cAngle> = 0
    <J_re> = 0
    <J_im> = 0
    <Sigma> = 10.44
    <d_lam> = 0
    <Phi_h> = 0
    <Phi_hx> = 0
    <Phi_hy> = 0
    <LamType> = 0
    <LamFill> = 1
    <NStrands> = 0
    <WireD> = 0
    <BHPoints> = 21
      0	0
      0.22706499999999999	13.898400000000001
      0.45412999999999998	27.796700000000001
      0.68119499999999999	42.397399999999998
      0.90825999999999996	61.415700000000001
      1.13533	82.382400000000004
      1.36239	144.66900000000001
      1.58935	897.75999999999999
      1.81236	4581.7399999999998
      2.01004	17736.200000000001
      2.1331600000000002	41339.300000000003
      2.1999900000000001	68321.800000000003
      2.2547899999999998	95685.5
      2.2999299999999998	123355
      2.3425099999999999	151083
      2.3787600000000002	178954
      2.4150100000000001	206825
      2.45126	234696
      2.4874999999999998	262568
      2.5237500000000002	290439
      2.5600000000000001	318310
  <EndBlock>
  <BeginBlock>
    <BlockName> = "18 AWG"
    <Mu_x> = 1
    <Mu_y> = 1
    <H_c> = 0
    <H_cAngle> = 0
    <J_re> = 0
    <J_im> = 0
    <Sigma> = 58
    <d_lam> = 0
    <Phi_h> = 0
    <Phi_hx> = 0
    <Phi_hy> = 0
    <LamType> = 3
    <LamFill> = 1
    <NStrands> = 1
    <WireD> = 1.0239652968433499
    <BHPoints> = 0
  <EndBlock>
[CircuitProps]  = 2
  <BeginCircuit>
    <CircuitName> = "New Circuit"
    <TotalAmps_re> = 5
    <TotalAmps_im> = 0
    <CircuitType> = 1
  <EndCircuit>
  <BeginCircuit>
    <CircuitName> = "circuit"
    <TotalAmps_re> = 20
    <TotalAmps_im> = 0
    <CircuitType> = 1
  <EndCircuit>
[NumPoints] = 43
0	-2.5	0	0
-2.5	0	0	0
-2.5	-2.5	0	0
2.5	2.5	0	0
-2.5	2.5	0	0
2.5	-2.5	0	0
2.5	-0.5	0	0
1.5	-0.5	0	0
1.5	-1.5	0	0
-1.5	-1.5	0	0
-1.5	1.5	0	0
1.5	1.5	0	0
1.5	0.5	0	0
2.5	0.5	0	0
-7.5	0	0	0
7.5	0	0	0
-1.5	-0.5	0	0
-1.5	0.5	0	0
-2.5	0.5	0	0
-2.5	-0.5	0	0
-1.5	0	0	0
-1.3	0.29999999999999999	0	0
-1.3	-0.29999999999999999	0	0
-1.5	0.29999999999999999	0	0
-1.5	-0.29999999999999999	0	0
-2.7000000000000002	0.29999999999999999	0	0
-2.5	0.29999999999999999	0	0
-2.7000000000000002	-0.29999999999999999	0	0
-2.5	-0.29999999999999999	0	0
1.5	0.10000000000000001	0	0
2.5	0	0	0
2.5	0.10000000000000001	0	0
3.5	0	0	0
-1.5	2.5	0	0
-2.5	1.5	0	0
-1.5	-2.5	0	0
-2.5	-1.5	0	0
1.5	-2.5	0	0
2.5	-1.5	0	0
1.5	2.5	0	0
2.5	1.5	0	0
2.5	-0.40000000000000002	0	0
3.5	-0.40000000000000002	0	0
[NumSegments] = 35
10	11	-1	0	0	0
12	11	-1	0	0	0
40	13	-1	0	0	0
8	7	-1	0	0	0
0	37	-1	0	0	0
9	8	-1	0	0	0
1	28	-1	0	0	0
10	17	-1	0	0	0
16	9	-1	0	0	0
17	23	-1	0	0	0
18	34	-1	0	0	0
19	36	-1	0	0	0
20	24	-1	0	0	0
18	26	-1	0	0	0
23	20	-1	0	0	0
24	16	-1	0	0	0
23	21	-1	0	0	0
22	21	-1	0	0	0
24	22	-1	0	0	0
26	1	-1	0	0	0
28	19	-1	0	0	0
25	26	-1	0	0	0
27	28	-1	0	0	0
25	27	-1	0	0	0
33	39	-1	0	0	0
35	0	-1	0	0	0
38	6	-1	0	0	0
7	6	-1	0	0	0
29	31	-1	0	0	0
31	13	-1	0	0	0
12	29	-1	0	0	0
41	30	-1	0	0	0
30	32	-1	0	0	0
32	42	-1	0	0	0
42	41	-1	0	0	0
[NumArcSegments] = 6
14	15	180	1	0	0	0
15	14	180	1	0	0	0
33	34	90	1	0	0	0
36	35	90	1	0	0	0
37	38	90	1	0	0	0
40	39	90	1	0	0	0
[NumHoles] = 0
[NumBlockLabels] = 6
-0.01	3.7999999999999998	1	-1	0	0	0	1	0
0.55000000000000004	1.96	2	-1	0	0	0	1	0
0.87	0.35999999999999999	1	-1	0	0	0	1	0
-1.3819999999999999	0.040000000000000001	3	-1	2	0	0	100	0
-2.6150000000000002	-0.0050000000000000001	3	-1	2	0	0	-100	0
2.9100000000000001	-0.14999999999999999	2	-1	0	0	0	1	0
